This is a second file. And some stuff.
New line.
